# generated using pymatgen
data_LiV2O5
_symmetry_space_group_name_H-M   Pmn2_1
_cell_length_a   3.56758400
_cell_length_b   4.91394270
_cell_length_c   11.60682369
_cell_angle_alpha   90.00000000
_cell_angle_beta   90.00000000
_cell_angle_gamma   90.00000000
_symmetry_Int_Tables_number   31
_chemical_formula_structural   LiV2O5
_chemical_formula_sum   'Li2 V4 O10'
_cell_volume   203.47810441
_cell_formula_units_Z   2
loop_
 _symmetry_equiv_pos_site_id
 _symmetry_equiv_pos_as_xyz
  1  'x, y, z'
  2  '-x+1/2, -y, z+1/2'
  3  '-x, y, z'
  4  'x+1/2, -y, z+1/2'
loop_
 _atom_site_type_symbol
 _atom_site_label
 _atom_site_symmetry_multiplicity
 _atom_site_fract_x
 _atom_site_fract_y
 _atom_site_fract_z
 _atom_site_occupancy
  Li  Li0  2  0.00000000  0.67761400  0.68876300  1
  V  V1  2  0.00000000  0.86176900  0.10112300  1
  V  V2  2  0.00000000  0.92867600  0.39943500  1
  O  O3  2  0.00000000  0.03479800  0.25275300  1
  O  O4  2  0.00000000  0.52801000  0.13055500  1
  O  O5  2  0.00000000  0.59895000  0.39338100  1
  O  O6  2  0.00000000  0.95004700  0.93124200  1
  O  O7  2  0.00000000  0.99341600  0.57475400  1
