data_image0
_cell_length_a       3.56758
_cell_length_b       4.91394
_cell_length_c       11.6068
_cell_angle_alpha    90
_cell_angle_beta     90
_cell_angle_gamma    90

_symmetry_space_group_name_H-M    "P 1"
_symmetry_int_tables_number       1

loop_
  _symmetry_equiv_pos_as_xyz
  'x, y, z'

loop_
  _atom_site_label
  _atom_site_occupancy
  _atom_site_fract_x
  _atom_site_fract_y
  _atom_site_fract_z
  _atom_site_thermal_displace_type
  _atom_site_B_iso_or_equiv
  _atom_site_type_symbol
  Li1      1.0000 0.00000  0.70240  0.71540  Biso   1.000  Li
  Li2      1.0000 0.50000  0.29761  0.21540  Biso   1.000  Li
  V1       1.0000 0.00000  0.87240  0.10694  Biso   1.000  V
  V2       1.0000 0.50000  0.12759  0.60694  Biso   1.000  V
  V3       1.0000 0.00000  0.92683  0.40465  Biso   1.000  V
  V4       1.0000 0.50000  0.07318  0.90465  Biso   1.000  V
  O1       1.0000 0.00000  0.04000  0.25177  Biso   1.000  O
  O2       1.0000 0.50000  0.96001  0.75177  Biso   1.000  O
  O3       1.0000 0.00000  0.54250  0.13516  Biso   1.000  O
  O4       1.0000 0.50000  0.45750  0.63515  Biso   1.000  O
  O5       1.0000 0.00000  0.59760  0.39350  Biso   1.000  O
  O6       1.0000 0.50000  0.40240  0.89350  Biso   1.000  O
  O7       1.0000 0.00000  0.93944  0.93234  Biso   1.000  O
  O8       1.0000 0.50000  0.06056  0.43234  Biso   1.000  O
  O9       1.0000 0.00000  0.99388  0.58170  Biso   1.000  O
  O10      1.0000 0.50000  0.00612  0.08171  Biso   1.000  O
